[TITLE]
 EPANET Example Network 1 
A simple example of modeling chlorine decay. Both bulk and 
wall reactions are included.  

[JUNCTIONS]
 10                                  710.0000
 11                                  710.0000
 12                                  700.0000
 13                                  695.0000
 21                                  700.0000
 22                                  695.0000
 23                                  690.0000
 31                                  700.0000
 32                                  710.0000

[RESERVOIRS]
 9                                   800.0000 

[TANKS]
 2                                   810.0000       9.4586       9.4586      26.1230      69.7024  200296.1666 

[PIPES]
 10                              10                              11                                10530.0000       9.0000     100.0000       0.0000 
 11                              11                              12                                 5280.0000       9.0000     100.0000       0.0000 
 12                              12                              13                                 5280.0000       9.0000     100.0000       0.0000 
 21                              21                              22                                 5280.0000       9.0000     100.0000       0.0000 
 22                              22                              23                                 5280.0000       9.0000     100.0000       0.0000 
 31                              31                              32                                 5280.0000       9.0000     100.0000       0.0000 
 110                             2                               12                                  200.0000       9.0000     100.0000       0.0000 
 111                             11                              21                                 5280.0000       9.0000     100.0000       0.0000 
 112                             12                              22                                 5280.0000       9.0000     100.0000       0.0000 
 113                             13                              23                                 5280.0000       9.0000     100.0000       0.0000 
 121                             21                              31                                 5280.0000       9.0000     100.0000       0.0000 
 122                             22                              32                                 5280.0000       9.0000     100.0000       0.0000 

[PUMPS]
 9                               9                               10                               HEAD C10   PATTERN  2

[VALVES]

[DEMANDS]
 10                                    0.000000    1
 11                                  150.000000    1
 12                                  150.000000    1
 13                                  100.000000    1
 21                                  150.000000    1
 22                                  200.000000    1
 23                                  150.000000    1
 31                                  100.000000    1
 32                                  100.000000    1

[EMITTERS]

[STATUS]

[PATTERNS]
 1                                     1.0000       1.0000       1.0000       0.9000       0.9000       0.9000
 1                                     0.7000       0.7000       0.7000       0.6000       0.6000       0.6000
 1                                     1.2000       1.2000       1.2000       1.3000       1.3000       1.3000
 1                                     1.2000       1.2000       1.2000       1.1000       1.1000       1.1000
 2                                     1.0000       0.0000       1.0000       0.0000       1.0000       0.0000
 2                                     0.0000       0.0000       0.0000       0.0000       0.0000       0.0000
 2                                     0.0000       1.0000       1.0000       0.0000       1.0000       0.0000
 2                                     0.0000       1.0000       0.0000       0.0000       0.0000       1.0000

[CURVES]
 1                                  1500.0000     250.0000
 E1                                    0.0000       0.0000
 E1                                 2000.0000      50.0000
 E1                                 4000.0000      65.0000
 E1                                 6000.0000      55.0000
 E1                                 8000.0000      40.0000
 C1                                 1000.0000     180.0000
 C2                                 2000.0000     200.0000
 C3                                 3000.0000     220.0000
 C4                                 4000.0000     240.0000
 C5                                 5000.0000     260.0000
 C6                                 1000.0000     200.0000
 C7                                 2000.0000     220.0000
 C8                                 3000.0000     240.0000
 C9                                 4000.0000     260.0000
 C10                                5000.0000     280.0000

[CONTROLS]

[QUALITY]

[SOURCES]

[MIXING]
 2                               MIXED          1.0000

[REACTIONS]
 ORDER  BULK            1.00
 ORDER  WALL            1
 ORDER  TANK            1.00
 GLOBAL BULK            0.000000
 GLOBAL WALL            0.000000

[ENERGY]
 GLOBAL EFFIC        75.0000
 DEMAND CHARGE       0.0000
 PUMP 9                               EFFIC   E1

[TIMES]
 DURATION            24:00:00
 HYDRAULIC TIMESTEP  1:00:00
 QUALITY TIMESTEP    1:00:00
 REPORT TIMESTEP     1:00:00
 REPORT START        0:00:00
 PATTERN TIMESTEP    1:00:00
 PATTERN START       0:00:00
 RULE TIMESTEP       0:06:00
 START CLOCKTIME     18:00:00
 STATISTIC           NONE

[OPTIONS]
 UNITS               GPM
 PRESSURE            PSI
 HEADLOSS            H-W
 PATTERN             1
 UNBALANCED          CONTINUE 10
 QUALITY             Chlorine mg/L
 DEMAND MULTIPLIER   1.0000
 EMITTER EXPONENT    0.5000
 VISCOSITY           1.000000
 DIFFUSIVITY         1.000000
 SPECIFIC GRAVITY    1.000000
 TRIALS              40
 ACCURACY            0.00100000
 TOLERANCE           0.01000000
 CHECKFREQ           2
 MAXCHECK            10
 DAMPLIMIT           0.00000000

[REPORT]
 PAGESIZE            0
 STATUS              NO
 SUMMARY             NO
 ENERGY              NO
 NODES               NONE
 LINKS               NONE
 Elevation           NO
 Demand              PRECISION 2
 Head                PRECISION 2
 Pressure            PRECISION 2
 Quality             NO
 Length              NO
 Diameter            NO
 Flow                PRECISION 2
 Velocity            PRECISION 2
 Headloss            PRECISION 2
 Quality             NO
 State               NO
 Setting             NO
 Reaction            NO
[RULES]

[COORDINATES]
 10                                   20.000000      70.000000
 11                                   30.000000      70.000000
 12                                   50.000000      70.000000
 13                                   70.000000      70.000000
 21                                   30.000000      40.000000
 22                                   50.000000      40.000000
 23                                   70.000000      40.000000
 31                                   30.000000      10.000000
 32                                   50.000000      10.000000
 9                                    10.000000      70.000000
 2                                    50.000000      90.000000

[TAGS]

[VERTICES]
;Link            	X-Coord         	Y-Coord

[LABELS]
;X-Coord           Y-Coord          Label & Anchor Node
 6.99             73.63            "Source"                 
 13.48            68.13            "Pump"                 
 43.85            91.21            "Tank"                 

[BACKDROP]
 DIMENSIONS     	7.00            	6.00            	73.00           	94.00           
 UNITS          	None
 FILE           	
 OFFSET         	0.00            	0.00            



[END]